scripts/data/pwf/EMS_tales_sem_dcsc_convergido.PWF
(ARQUIVO GRAVADO A PARTIR DO PROGRAMA ORGANON)
TITU
PONTA - ONS - 3Q2021 - DEZEMBRO - Pesada RSUL                                                                           
DOPC
(Op) E (Op) E (Op) E (Op) E (Op) E (Op) E (Op) E (Op) E (Op) E (Op) E
NEWT L STEP L CREM L CELO L 
RCVG L RMON L MOST L MOSG L MOSF L FILE L CONT L
QLIM L
CTAP D
TAPD D
CSCA D
CPHS D
99999
(Mn) ( Val) (Mn) ( Val) (Mn) ( Val) (Mn) ( Val) (Mn) ( Val) (Mn) ( Val)
DCTE
BASE 100.  
TEPA .1    
TEPR .1    
VFLD 80.   
ACIT     35
99999
DBAR
(Num)OETGb(   nome   )Gl( V)( A)( Pg)( Qg)( Qn)( Qm)(Bc  )( Pl)( Ql)( Sh)Are(Vf)M(1)(2)(3)(4)(5)(6)(7)(8)(9)(10
   10 L1 VANGRA1UNE001 5 96513.4640. -14. -211.414.       32.  15.5      2511000
   11 L1 VANGRA2UNE001 5 96514. 1350.-49.4-600.600.                      2511000
   12 L1 VLCBARRUHE005 5 99719.5734. -221.-450.350.                      2041000
   13 L1 TLCBARRSIN000 5102415.1          0.   0.                        2041000
   14 L1 VFUNIL-UHE002 510034.76138. -15.9-100.100.                      2551000
   16 L1 VFURNASUHE006 5 98816.2851. -300.-300.300.                      3521000
   17 L1 TFURNASSIN000 5103310.1          0.   0.                        3521000
   18 L1 VITUMBIUHE005 5 98739.31596.-237.-455.500.                      3511000
   19 L1 TITUMBISIN000 5101532.           0.   0.                        3511000
   20 L1 VMARIMBUHE006 5104127.91042.-211.-480.480.                      3511000
   21 L1 VMANSO-UHE003 5100059.2132. .4316-60. 63.                       4721000
   22 L1 VM.MORAUHE005 5 97519.6218. -100.-100.105.                      3521000
   24 L1 VM.MORBUHE003 5 95019.7126. -8.09-18. 46.5                      2081000
   28 L1 VPCOLOMUHE003 5100936.6230. -47. -75. 75.                       2081000
   30 L1 VSCRU19UTE000 51020-.58          0.   0.                        2541000
   31 L1 VSCRU13UTE000 5 976-.58          0.   0.                        2541000
   32 L1 VSCRU16UTE002 510065.95350. -22.8-180.220.                      2541000
   35 L1 VCORUMBUHE003 5 98738.7267. -39.5-180.180.                      5121000
   36 L1 VS.MESAUHE002 5 98144.9756. -128.-320.320.                      5111000
   37 L1 TS.MESASIN000 5100239.4          0.   0.                        5111000
   38 L1 NGRAJA2SIN001 51034-3.4     14.25-120.200.                      2511000
   41 L1 TVITOR2SIN001 510097.8      -9.06-30. 60.                       3021000
   44 L1 NGRAJA1SIN001 51033-3.5     10.53-120.200.                      2511000
   46 L 08CAMPO-CER015 6115013.9                                         2521096
   47 L1 TVITOR1SIN001 510107.8      -9.12-30. 60.                       3021000
   48 L1 QIBIUNASIN004 5 996-11.     -720.-720.1200.    86               2041000
   50 L1 QTPRETOSIN001 51001-13.     42.34-180.300.                      2011000
   52 L  EP.ACU--RJ345 5100217.2                                         2521000
   53 L1 QGNA1G-UTE002 5100021.5454. -80.5-200.374.                      2521000
   54 L125GNA1V-UTE001 5100020.3239. -66.3-241.291.                      2521000
   55 L  NBALTO-CER013 6117023.2                                         5131000
   56 L  IIVAIP3-PR069 5 889-12.                                         2011000
   57 L  IIVAIP2-PR069 5 839-12.                                         201 960
   58 L  UIVAIP2-PR000 61003-12.                                         201 960
   59 L  UIVAIP3-PR000 6 997-12.                                         2011000
   60 L  AF.IGUA-PR765 1 907-.36                                         2011000
   61 L  CFZ-500-PR500 3 9292.02                                         1011000
   62 L  AIV-FZ1CAP765 11021-12.                                         2011000
   63 L  AIV-FZ2CAP765 11021-12.                                         2011000
   64 L  AIV-FZ3CAP765 11018-12.                                         2011034
   65 L  AIVAIPO-PR765 1 992-8.                                          2011000
   66 L  BIVAIPA-PR525 21009-11.                                         1011000
   67 L  IIVAIP1-PR069 5 883-12.                          .24  0.        2011000
   68 L  UIVAIP1-PR000 61000-12.                                         2011000
   69 L  AIV-IT1CAP765 1 961-7.3                                         2011000
   70 L  AIV-IT2CAP765 1 961-7.3                                         2011000
   71 L  AIV-IT3CAP765 1 961-7.3                                         2011014
   72 L  AITABER-SP765 11013-8.7                                         2011000
   73 L  AIT-TP1CAP765 1 966-8.                                          2011000
   74 L  AIT-TP2CAP765 1 966-8.                                          2011000
   75 L  AIT-TP3CAP765 1 965-8.                                          2011000
   76 L  ATPRETO-SP765 1 981-9.5                                         2011000
   77 L  CTPRETO-SP500 31064-6.6                                         2021000
   78 L  ETPRETO-SP345 51024-13.                                         2041000
   79 L  ITPRETO-SP069 6 869-6.5                                         2011000
   80 L  UTPRET3-SP000 6 980-6.5                                         2011000
   81 L  UTPRET4-SP000 6 990-13.                                         2011000
   82 L  ETPRET2-SP345 51024-13.                                         2041000
   84 L  GRESEN2-RJ138 51032-.1                                          2551000
   85 L  CFOZ500-PR500 31053-1.5                          60.  0.        2411000
   86 L  EIBIUNA-SP345 51061-11.                                         2041000
   87 L  CRESEND-RJ500 310791.67                                         2511000
   90 L  EVIANA--ES345 510259.43                                         3021010
   91 L  NVIANT1-ES013 610217.38                                         3021010
   92 L  CSB-SM1CAP500 3106729.8                                         5111000
   93 L  CSB-SM2CAP500 3107630.8                                         5111000
   94 L  CSB-SM3CAP500 3107930.5                                         5111000
   95 L  NVIANT2-ES013 610217.37                                         3021010
   96 L  NVIANT3-ES013 610217.36                                         3021000
   99 L  CAS-AR1-SP500 310823.15                                         2021000
  100 L  CMARIMB-MG500 3106822.2                                         3511000
  101 L  CARARAQ-SP500 3109611.2                                         2021000
  102 L  CP.CALD-MG500 310666.41                                         3511000
  103 L  CCAMPIN-SP500 31098-3.6                                         2021000
  104 L  CC.PAUL-SP500 310821.68                                         2021000
  105 L  CANGRA--RJ500 310526.16                                         2511000
  106 L  CADRIAN-RJ500 310671.83                                         2511000
  107 L  CGRAJAU-RJ500 31069-.08                                         2511000
  108 L  CS.JOSE-RJ500 310601.28                                         2511000
  109 L  CBYPSAD-RJ500 310681.82                                         2511000
  110 L  UGR1T52-RJ000 61030-3.5                                         2511000
  112 L  CBA-IB1-PR500 31105-19.                                         1011000
  113 L  CBA-IB2-PR500 31105-19.                                         1011000
  114 L  CBA-IT1-PR500 31106-19.                                         1011000
  115 L  CBA-IT1CAP500 31096-33.                                         2021000
  116 L  GIMBTAP-RJ138 51003-3.3                                         2561000
  118 L  UBANDT4-GO000 6 99729.                                          5121000
  119 L  NBANDT4-GO013 6 99729.                                          5121000
  120 L  EP.CALD-MG345 51048.173                                         3521000
  121 L  UPCAT51-MG000 6 930-1.3                                         3511000
  122 L  CIBIUNA-SP500 31095-12.                                         2021000
  123 L  ECAMPIN-SP345 51060-7.1                                         2041000
  124 L  UCAMP51-SP000 61034-7.8                                         2021000
  125 L  CIB-BA1CAP500 31022-4.1                                         2021000
  126 L  EGUARUL-SP345 51042-15.                                         2041000
  127 L  EMO-RL1-SP345 51027-13.                                         2041000
  128 L  EMO-RL2-SP345 51027-13.                                         2041014
  129 L  EMOGI---SP345 51023-13.                                         2041000
  130 L  CIB-BA2CAP500 31022-4.1                                         2021000
  131 L  EM.MORA-MG345 5102514.1                                         3521000
  133 L  UADRT1A-RJ000 61030-1.7                                         2521000
  134 L  ELCBARR-SP345 5102315.1                                         2041000
  135 L  UJACT1A-RJ000 61016-3.7                                         2521000
  136 L  EFURNAS-MG345 5103310.1                                         3521000
  137 L  UJACT2A-RJ000 61016-3.7                                         2521000
  138 L  EITUTIN-MG345 510491.18                                         3521000
  139 L  UADRT51-RJ000 61032.878                                         2511014
  140 L  EADRIAN-RJ345 51028.745                                         2521000
  141 L  UADRT53-RJ000 61039.446                                         2511000
  142 L  UADRT55-RJ000 61038.505                                         2511060
  143 L  UADRT2B-RJ000 61030-1.7                                         2521030
  144 L  EJACARE-RJ345 51026-1.2                                         2521000
  145 L  UADRT1B-RJ000 61030-1.7                                         2521000
  146 L  UADRT2A-RJ000 61029-1.7                                         2521000
  147 L  ECAMPOS-RJ345 5101213.9                                         2521000
  148 L  UCAMPO1-RJ000 610129.83                                         2521000
  149 L  EVITORI-ES345 510267.8                                          3021000
  150 L  UVITAT1-ES000 610205.31                                         3021000
  152 L  UVITAT2-ES000 610205.33                                         3021000
  153 L  UVITAT3-ES000 610205.21                                         3021000
  154 L  NVITAT2-ES013 610205.33                                         3021000
  155 L  NVITAT3-ES013 610205.21                                         3021000
  156 L  NVITAT4-ES013 610205.44                                         3021000
  158 L  UVITAT4-ES000 610205.44                                         3021000
  159 L  NJA-R30-RJ013 61016-3.7                                         2521000
  160 L  NJB-R60-RJ013 61016-3.8                                         2521000
  161 L  FMO-FCE-SP230 51035-14.                                         2051000
  162 L  UCAMAT1-SP000 61046-9.1                                         2071000
  163 L  NCAMPI1-SP013 61046-9.1                                         2071000
  164 L  UPCAT02-MG000 61046-2.1                                         3521000
  165 L  NP.CAL2-MG013 6 982-2.1                                         3521000
  166 L  UJACT1B-RJ000 61016-3.8                                         2521000
  167 L  NJA-R60-RJ013 61016-3.7                                         2521000
  169 L  GSJOSE2-RJ138 51006-.23                                         2541000
  170 L  GP.CALD-MG138 51062-1.8                                         3591000
  171 L  GCAMPI1-SP138 51019-9.4                          1.01 0.        2071000
  172 L  GIMBARE-RJ138 5 992-2.1                                         2561000
  173 L  GADRIAN-RJ138 51012-1.6                                         2561000
  174 L  GR.LEAO-RJ138 51017-3.1                                         2581000
  175 L  GCAMPOS-RJ138 5102010.                           .25  0.        2591000
  176 L  UCAMP54-SP000 61034-7.7                                         2021000
  177 L  GVITOR1-ES138 510115.58                                         3041000
  178 L  GGRAJAU-RJ138 51016-3.2                                         2541000
  179 L  UGR2T54-RJ000 61030-3.4                                         2511000
  180 L  GJACAR2-RJ138 51017-3.6                                         2541000
  181 L  GANGDEF-RJ138 51006-.39                                         2551037
  182 L  GFUNIL--RJ138 51015.342                                         2551000
  183 L  GC.PAUL-SP138 5 989.84                                          2141000
  184 L  GS.CRUZ-RJ138 51020-.58                                         2541000
  185 L  GANGRA--RJ138 510119.25                          3.   0.        2551000
  186 L  NCAMP54-SP013 61034-7.7                                         2021000
  187 L  GM.MORA-MG138 5103613.                                          3581000
  189 L  UBGERT1-DF000 6100225.4                                         5631000
  190 L  GP.COL--MG138 5103530.9                                         2081000
  192 L  NCAMPO1-RJ013 610129.83                                         2521000
  194 L  NADRT55-RJ013 61038.505                                         2511080
  195 L  NADRT53-RJ013 61039.446                                         2511000
  196 L  NCAMP51-SP013 61034-7.8                                         2021000
  197 L  NADRT51-RJ013 61032.878                                         2511014
  198 L  NPCALAT-MG013 6 930-1.3                                         3511000
  199 L  NVITAT1-ES013 610205.31                                         3021000
  200 L  UUCAMP1-RJ000 6 9946.48                                         2591000
  201 L1 VRSIL-1UTE001 5 9946.1           0.   0.         1.16 0.        2591000
  202 L  UUCAMP2-RJ000 6 9946.48                                         2591000
  203 L1 VRSIL-2UTE001 5 9946.1           0.   0.         1.16 0.        2591000
  204 L  NADRT1B-RJ013 61030-1.7                                         2521000
  205 L  NADRT2A-RJ013 61074-1.7                                         2521000
  206 L  NADRT2B-RJ013 61075-1.7                                         2521030
  208 L  NBGERT1-DF013 6100225.4                                         5631000
  209 L  NADRT1A-RJ013 61030-1.7                                         2521000
  210 L  CITUMBI-MG500 3106532.                                          3511000
  211 L  UCAMPO2-RJ000 610129.72                                         2521000
  212 L  NCAMPO2-RJ013 610129.72                                         2521000
  213 L  EMARIMB-MG345 5103821.7                                         3521000
  214 L  UMARIMB-MG000 6103621.6                                         3511000
  216 L  EP.COL--MG345 5102421.2                                         3521000
  217 L  EITUMBI-MG345 5101732.                                          3521000
  218 L  EBANDEI-GO345 5100830.4                                         5121000
  219 L  EB.SUL--DF345 5102632.2                                         5621000
  220 L  ECORUMB-GO345 5102734.1                                         5121000
  221 L  LB.GERA-DF034 5100225.7                                         564 991
  222 L  UBSULT6-DF000 6103230.                                          5621000
  223 L  UBANDT1-GO000 6 99729.                                          5121000
  224 L  UBANDT2-GO000 6 99628.8                                         512 987
  225 L  FITUMBI-MG230 5104133.2                                         3531000
  226 L  FBANDEI-GO230 5102329.2                                         5131000
  227 L  FB.GERA-DF230 5103130.2                                         5631000
  228 L  FB.SUL--DF230 5103030.4                                         5631000
  229 L  FB.ALTO-GO230 5103123.2                                         5131000
  230 L  FS.MESA-GO230 5 96539.1                                         5131000
  231 L  FR.VERD-GO230 5103935.6                                         5131000
  232 L  NBSULT6-DF013 6103230.                                          5621000
  233 L  CSAMAMB-DF500 3106634.7                                         5611000
  234 L  ESAMAMB-DF345 5102933.                                          5621000
  235 L  CS.MESA-GO500 3105239.4                                         5111000
  236 L  GB.SUL--DF138 5102128.6                          .81  0.        5641000
  237 L  GSAMAMB-DF138 5100031.1                                         5641000
  238 L  GR.VERD-GO138 5103034.7                          .13  0.        5171000
  239 L  GS.MESA-GO138 5104137.1                                         5181000
  240 L  URVERT1-GO000 6 99534.6                                         5131000
...
99999
DLIN
(De )d O d(Pa )NcEP ( R% )( X% )(Mvar)(Tap)(Tmn)(Tmx)(Phs)(Bc  )(Cn)(Ce)Ns(Cq)(1)(2)(3)(4)(5)(6)(7)(8)(9)(10
   38       17954         3.0195      1.                         200 200   200
   44       11052         3.          1.                         200 200   200
   50        81 4         2.498       1.                         500 500   500
   52       147 1   .16   1.646 27.714                          10581539  1539
   52       147 2   .16   1.646 27.714                          10581539  1539
   53        52 1         1.628       1.014                     10351242  1449
   54        52 1         2.186       1.014                      560 672   784
   56        59 3         3.385       1.                         550 550   251
   57        58 2         3.606       1.                         550 550    73
   60        62 1   .076  1.85  927.8                           41334174  4174
   60        63 2   .076  1.85  929.1                           41334174  4174
   60        64 3   .082  1.899 954.57                          41334174  4174
   60     43810 2         .806        .9524                     16501815  1880
   60     43862 1         .743        .9524                     16501815  1880
   60     43899 3         .74         .9524                     16501815  1880
   60     43915 4         .746        .9524                     16501815  1880
   60     43921 5         .731        .9524                     16501980  2309
   61     43421 1   .1178 1.9883257.72                          30963622  3622
   61     43422 2   .1178 1.9883257.72                          30963622  3622
   61     43810 2         -.164       1.                        16501815  1880
   61     43862 1         -.121       1.                        16501815  1880
   61     43899 3         -.117       1.                        16501815  1880
   61     43915 4         -.123       1.                        16501815  1880
   61     43921 5         -.114       1.                        16501980  2309
   62        65 1         -.73                                                
   63        65 2         -.73                                                
   64        65 3         -.73                                                
   65        58 2         .823        1.                        16501815  1815
   65        59 3         .773        1.                        16501831  1897
   65        68 1         .843        1.                        16501815  1995
   65        69 1         -.778                                               
   65        70 2         -.778                                               
   65        71 3         -.778                                               
   66        68 1         -.17        1.017.838 1.053        99916501815321995
   67        68 1         3.649       1.                         550 550  1650
   72        69 1   .064  1.53  760.                            41334174  4174
   72        70 2   .063  1.53  755.7                           41334174  4174
   72        71 3   .064  1.54  760.                            41334174  4174
   72        73 1         -.915                                               
   72        74 2         -.915                                               
   72        75 3         -.915                                               
   76        73 1   .072  1.75  877.5                           41334174  4174
   76        74 2   .072  1.75  873.                            41334174  4174
   76        75 3   .078  1.79  898.2                           41334174  4174
   76        80 3         .697        1.                        16501815  1995
   76        81 4         1.028       1.                        15001650  1650
   76     41512 5         .993        1.                        15001650  1650
   76     41514 6         .983        1.                        15001650  1650
   76     41516 7         .931        1.                        15001800  1800
   76     41518 1         .839        1.                        16501650  1650
   76     41520 2         .817        1.                        16501815  1815
   77        80 3         -.03        1.087.88  1.16          7716501815321995
   77       104 1   .167  2.54  216.6                           18552337  2337
   77       598 1   .106  1.441 133.4                           18552252  2252
   77      3383 1   .115  1.712 259.01                          27282728  2728
   77     41518 1         -.165       1.087.88  1.16          7716501650331650
   77     41520 2         -.162       1.087.88  1.16          7716501815331815
   78        81 4         -.107       1.035.859 1.115         7815001650321650
   78        86 2   .187  2.602 60.1                            12801613  1613
   78       449 1   .0742 .6448 11.34                           11841184  1392
   78       449 2   .0742 .6448 11.34                           11841184  1392
   78       464 3   .1089 .973  17.073                           9121103  1103
   78       471 1   .0922 .8014 14.08                           11841392  1392
   78       471 2   .0922 .8014 14.08                           11841392  1392
   78     41512 5         -.093       1.035.859 1.115         7815001650331650
   78     41820 1   .00707.00707                                              
   78     41823 1   .00707.00707                                              
   78        82 1         1.26                                                
   79        80 3         3.545       1.                         550 550   550
   82        86 1   .187  2.602 60.1                            12801613  1613
   82       449 3   .06   .63   12.845                          13501350  1350
   82       449 4   .06   .63   12.845                          13501350  1350
   82     41514 6         -.092       1.045.859 1.115         8215001650331650
   82     41516 7         -.058       1.045.859 1.115         8215001800331800
   82     41821 1   .00707.00707                                              
   82     41822 1   .00707.00707                                              
   84      1780 1   .7    1.78  .454                             120 120   120
   84      1780 2   .7    1.78  .454                             120 120   120
   84     11797 1   .32   .815  .2079                            122 130   122
   84     21797 1   .32   .815  .2079                            122 130   122
   84     42417 1   .004  -1.667      1.                         300 359   419
   85      1103 3   .0058 .1006910.041                          27283377  3377
   85      1103 4   .00564.097959.691                           27283377  3377
   86        48 1         .71475      1.013                     10501050  1050
   86       488 1   .0948 1.498741.91                           20202390  2390
   86       488 2   .0948 1.498741.91                           20202390  2390
   86     41522 1         -.25        1.048.895 1.048       -122 750 75033 750
   86     41524 2         -.254       1.048.895 1.048       -122 750 75033 750
   86     41526 3         .236        1.048.895 1.048       -122 750 900331050
   87     42417 1   .121  4.833       1.04 .9   1.1          -84 300 35921 419
   87     42426 1         8.333       1.                         150 180   180
   87     42428 2         11.458      1.                         120 144   144
   90      2608 1         4.847       1.005                      225 270   304
   90      2618 2         4.861       1.005                      225 270   304
   90      2628 3         4.65        1.005                      225 270   304
   90      3032 1   .225  2.468 41.546                           717 717   717
   90     42441 4         3.081       1.005                      400 480   560
   91      2608 1         9.7         1.                          75  75    75
   95      2618 2         9.773       1.                          75  75    75
   96      2628 3         9.83        1.                          75  75    75
   99       101 1   .198  3.098 317.55                          20012001  2001
   99       556 1   .00707.00707      1.05                                    
  100        20 1         1.053       1.                        16201620  1620
  100       214 9         2.979       1.021.95  1.05        -213 560 71732 717
  100       535 1 T .153  2.356 203.8                           17321732  1732
  100      3110 1   .1253 1.8381160.42                          19922390  2390
  100      4598 1   .006  .097  7.4                             18552337  2337
  100      4598 2   .006  .086  7.2                             18552337  2337
  100      4598 3   .0064 .0824 7.1767                          19922390  2390
  101       102 1   .156  2.46  208.5                           18552337  2337
  101       103 1   .15   2.39  202.6                           18552337  2337
  102       12151         2.911       1.05                       560 717   717
  102      1503 1   .129  1.993 167.7                           18552337  2337
  103       12451         2.946       1.05                       560 717   717
  103       17654         2.9116      1.05                       560 728   728
  103       609 1   .06   .946  76.26                           18552337  2337
  103      6609 1   .024  .368  31.7                            18552337  2337
  103      6609 2   .017  .267  38.833                          24773464  3464
  104        87 1   .051  .782  66.5                            18552337  2337
  104       598 1   .075  1.15  98.9                            18552252  2252
  104       609 1   .148  2.347 193.31                          18552337  2337
  104      1503 1   .052  .792  66.5                            18552337  2337
  104      3010 1   .189  3.162 709.73                          24423464  3464
  104      3010 2   .189  3.162 709.73                          24423464  3464
  104      3383 1   .014  .204  30.71                           27282728  2728
  104      9626 1   .098  1.68  252.04                          24732598  2598
  104     4166457         4.7375      1.05                       250 263   270
  104     4166659         4.9492      1.05                       250 270   283
  105        10 1         1.97        1.075                      777 777   777
  105        11 1         .95         1.075                     14771477  1477
  105       104 1 T .093  1.456 122.54                          18552337  2337
  105      9601 1   .092  1.363 115.34                          18552337  2337
  105      9608 1   .101  1.518 127.82                          18552337  2337
  105     4240158         3.988       1.05                       400 400   400
  106       108 1   .019  .389  42.1                            25982598  2598
  106       109 1   .00707.00707                                              
  106       13951         1.962       1.05                       560 644   672
  106       14153         3.042       1.05                       560 672   784
  106       14255         2.93        1.05                       560 716   716
  107       11052         2.141       1.05                       600 720   840
  107       17954         2.15        1.05                       600 720   840
  107     4240756         2.142       1.05                       600 720   840
  107     4240858         2.114       1.05                       600 720   840
  108     4243111         2.327       1.05                       600 660   684
  108     4243212         2.3         1.05                       600 660   684
  108     4243313         2.27        1.05                       600 720   840
  108     4243414         2.288       1.05                       600 720   840
  109       107 1   .033  .673  72.576                          25982598  2598
  109      9626 1   .012  .193  29.698                          24732598  2598
  112       895 1   .00707.00707      1.05                                    
  113       895 2   .00707.00707      1.05                                    
  114       895 1   .00707.00707      1.05                                    
  114       115 1         -2.124                                              
  115      6609 1   .263  4.25  659.                            29093667  3667
  116       172 1D  .125  .722  .207                             145 145   145
  116       173 1   .625  3.608 1.033                            153 193   146
  119       118 4         15.049      1.                          75  75    75
  120       12151         -.522       1.11 1.0091.11         120 560 71710 717
  120       126 1   .6    5.95  92.8                             776 977   977
  120       126 2   .606  6.02  93.8                             776 977   977
  120       164 2         8.275       .957                       150 160   160
  120       697 1   .394  4.39  74.85                            8531075  1075
  120     42000 1         7.754       1.                         150 160   160
  120     42002 3         8.027       1.                         150 161   161
  120     42004 4         7.2         1.                         150 150   150
  120     42006 5         4.54        1.                         225 270   315
  120     42008 6         4.556       1.                         225 270   315
  122      6609 1   .079  1.214 103.2                           18552337  2337
  122     41522 1         1.8016      1.05                       750 750   750
  122     41524 2         1.7995      1.05                       750 750   750
  122     41526 3         1.2804      1.05                       750 900  1050
  122       125 1         -2.051                                              
  122       130 2         -2.051                                              
  123       120 1 T .359  3.945 66.7                             8531075  1075
  123       12451         -.528       1.024.95  1.11         123 560 71717 717
  123       162 1         5.563       1.004                      149 176   176
  123       17654         -.413       1.024.95  1.11         123 560 72817 728
  123     41504 2         5.6         1.004                      149 176   176
  123     41505 3         6.0166      1.004                      149 176   181
  123     41506 4         5.6033      1.004                      149 176   181
  123     41507 5         5.63        1.004                      149 194   194
  125       112 1   .308  3.958 444.84                          12992251  2251
  126        86 1   .109  1.826 51.2                            17072150  2150
  126        86 2   .109  1.824 51.2                            17072150  2150
  126       123 1   .252  2.761 46.5                             8531075  1075
  126       442 1   .116  1.132 17.708                           776 977   977
  127       129 1         .76                                                 
  128       129 2         .76                                                 
  129       442 1   .067  .66   10.1                             776 956   956
  129     41660 1         2.436       1.                         500 590   615
  129     41662 2         2.339       1.                         500 590   615
  130       113 2   .308  3.958 444.84                          12992251  2251
  131        22 1         4.432       1.                         378 378   378
  131      3012 1   .038  .427  6.673                            8531075  1075
  131     4202211         2.686       1.                         400 480   560
  131     4202413         2.526       1.                         400 480   560
  134        12 1         1.068       .999                      11801180  1180
  134        13 1         2.67        .999                                    
  134       120 1   .56   6.16  105.3                            8531075  1075
  134       120 2   .55   6.13  107.7                            8531075  1075
...
99999
DCSC
(De ) O  (Pa )NcEP       (Xmin)(Xmax)( Xv )C ( Vsp) (Ext)Nst(1)(2)(3)(4)(5)(6)
99999
DCAI
(Num) O  Gr E (U) UOp ( P ) ( Q ) (A) (B) (C) (D) (Vfl) (Vf)
99999
DGEI
(Num) OA Gr E(U)UOpUOn( Pg)( Qg)( Qn)( Qm)(Xtrf) ( Xd)( Xq)( Xl) (fp)( Sn)(Ptu)
99999
DBSH
(NFr) O (NTo) Nc C (Vmn (Vmx Bctrl (Qini) T A (Extr
   56            D 0800 1200    56 -360.  C        
(G  O E (U) UOp (Sht )
10        2   2 -180. 
FBAN
(NFr) O (NTo) Nc C (Vmn (Vmx Bctrl (Qini) T A (Extr
   57            D 0800 1200    57 -540.  C        
(G  O E (U) UOp (Sht )
10        3   3 -180. 
FBAN
(NFr) O (NTo) Nc C (Vmn (Vmx Bctrl (Qini) T A (Extr
   65            D 0900 1100    65 -330.  C        
(G  O E (U) UOp (Sht )
10        1   1 -330. 
FBAN
(NFr) O (NTo) Nc C (Vmn (Vmx Bctrl (Qini) T A (Extr
   67            D 0800 1200    67 -360.  C        
(G  O E (U) UOp (Sht )
10        3   2 -180. 
FBAN
(NFr) O (NTo) Nc C (Vmn (Vmx Bctrl (Qini) T A (Extr
   72            D 0900 1100    72 -660.  C        
(G  O E (U) UOp (Sht )
10        2   2 -330. 
FBAN
(NFr) O (NTo) Nc C (Vmn (Vmx Bctrl (Qini) T A (Extr
   79            D 0800 1200    79 -360.  C        
(G  O E (U) UOp (Sht )
10        2   2 -180. 
FBAN
(NFr) O (NTo) Nc C (Vmn (Vmx Bctrl (Qini) T A (Extr
   85            F 0950 1050    85 1540.  C        
(G  O E (U) UOp (Sht )
10        3   3 280.  
20        2   2 350.  
FBAN
(NFr) O (NTo) Nc C (Vmn (Vmx Bctrl (Qini) T A (Extr
   86            F 0950 1050    86 1566.6 C        
(G  O E (U) UOp (Sht )
10        2   2 59.   
20        3   2 220.8 
30        4   3 237.  
40        1   0 279.8 
50        2   0 294.  
60        2   1 296.  
FBAN
(NFr) O (NTo) Nc C (Vmn (Vmx Bctrl (Qini) T A (Extr
  120            D 0950 1050   120        C        
(G  O E (U) UOp (Sht )
10        1   0 150.  
FBAN
(NFr) O (NTo) Nc C (Vmn (Vmx Bctrl (Qini) T A (Extr
  122            D 0900 1100   122 -180.  C        
(G  O E (U) UOp (Sht )
10        1   1 -180. 
FBAN
(NFr) O (NTo) Nc C (Vmn (Vmx Bctrl (Qini) T A (Extr
  123            D 0950 1050   123 100.   C        
(G  O E (U) UOp (Sht )
10        2   1 100.  
FBAN
(NFr) O (NTo) Nc C (Vmn (Vmx Bctrl (Qini) T A (Extr
  126            D 0950 1050   126        C        
(G  O E (U) UOp (Sht )
10        1   0 100.  
20        1   0 150.  
FBAN
(NFr) O (NTo) Nc C (Vmn (Vmx Bctrl (Qini) T A (Extr
  138            D 0950 1050   138        C        
(G  O E (U) UOp (Sht )
10        1   0 -60.  
20        1   0 -100. 
FBAN
(NFr) O (NTo) Nc C (Vmn (Vmx Bctrl (Qini) T A (Extr
  140            D 1030 1050   140        L        
(G  O E (U) UOp (Sht )
10        1   0 162.5 
20        1   0 162.5 
FBAN
(NFr) O (NTo) Nc C (Vmn (Vmx Bctrl (Qini) T A (Extr
  147            F 0950 1050   147        C        
(G  O E (U) UOp (Sht )
10        2   0 60.   
FBAN
(NFr) O (NTo) Nc C (Vmn (Vmx Bctrl (Qini) T A (Extr
  154            D 0950 1050   154        C        
(G  O E (U) UOp (Sht )
10        3   0 10.   
FBAN
(NFr) O (NTo) Nc C (Vmn (Vmx Bctrl (Qini) T A (Extr
  155            D 0950 1050   155        C        
(G  O E (U) UOp (Sht )
10        3   0 10.   
FBAN
(NFr) O (NTo) Nc C (Vmn (Vmx Bctrl (Qini) T A (Extr
  156            D 0950 1050   156        C        
(G  O E (U) UOp (Sht )
10        3   0 10.   
FBAN
(NFr) O (NTo) Nc C (Vmn (Vmx Bctrl (Qini) T A (Extr
  159            D 0950 1050   159        C        
(G  O E (U) UOp (Sht )
10        1   0 -30.  
FBAN
(NFr) O (NTo) Nc C (Vmn (Vmx Bctrl (Qini) T A (Extr
  160            D 0950 1050   160        C        
(G  O E (U) UOp (Sht )
10        1   0 -30.  
FBAN
(NFr) O (NTo) Nc C (Vmn (Vmx Bctrl (Qini) T A (Extr
  163            D 0500 1300   163        C        
(G  O E (U) UOp (Sht )
10        2   0 -25.  
FBAN
(NFr) O (NTo) Nc C (Vmn (Vmx Bctrl (Qini) T A (Extr
  165            D 0950 1050   165 -50.   C        
(G  O E (U) UOp (Sht )
10        2   2 -25.  
FBAN
(NFr) O (NTo) Nc C (Vmn (Vmx Bctrl (Qini) T A (Extr
  167            D 0950 1050   167        C        
(G  O E (U) UOp (Sht )
10    D   1   0 -30.  
FBAN
(NFr) O (NTo) Nc C (Vmn (Vmx Bctrl (Qini) T A (Extr
  169            F 0900 1100   169 250.   L        
(G  O E (U) UOp (Sht )
10        1   1 250.  
20        1   0 250.  
FBAN
(NFr) O (NTo) Nc C (Vmn (Vmx Bctrl (Qini) T A (Extr
  170            F 0950 1050   170        C        
(G  O E (U) UOp (Sht )
10        1   0 150.  
FBAN
(NFr) O (NTo) Nc C (Vmn (Vmx Bctrl (Qini) T A (Extr
  174            D 0900 1100   174 150.   L        
(G  O E (U) UOp (Sht )
10        2   2 75.   
FBAN
(NFr) O (NTo) Nc C (Vmn (Vmx Bctrl (Qini) T A (Extr
  175            F 1030 1050   175 50.    L        
(G  O E (U) UOp (Sht )
10        1   1 50.   
20        1   0 50.   
FBAN
(NFr) O (NTo) Nc C (Vmn (Vmx Bctrl (Qini) T A (Extr
  180            D 1005 1010   180 100.   L        
(G  O E (U) UOp (Sht )
10        1   0 100.  
20        1   1 100.  
FBAN
(NFr) O (NTo) Nc C (Vmn (Vmx Bctrl (Qini) T A (Extr
  185            D 1000 1050   185 25.    L        
(G  O E (U) UOp (Sht )
10        1   1 25.   
FBAN
(NFr) O (NTo) Nc C (Vmn (Vmx Bctrl (Qini) T A (Extr
  194            D 0950 1050   194        C        
(G  O E (U) UOp (Sht )
10        1   0 -50.  
FBAN
(NFr) O (NTo) Nc C (Vmn (Vmx Bctrl (Qini) T A (Extr
  195            D 0800 1200   195        C        
(G  O E (U) UOp (Sht )
10        1   0 -50.  
FBAN
(NFr) O (NTo) Nc C (Vmn (Vmx Bctrl (Qini) T A (Extr
  196            D 0950 1060   196        C        
(G  O E (U) UOp (Sht )
10        2   0 -50.  
FBAN
(NFr) O (NTo) Nc C (Vmn (Vmx Bctrl (Qini) T A (Extr
  198            D 0950 1050   198        C        
(G  O E (U) UOp (Sht )
10        2   0 -50.  
FBAN
(NFr) O (NTo) Nc C (Vmn (Vmx Bctrl (Qini) T A (Extr
  199            D 0950 1050   199        C        
(G  O E (U) UOp (Sht )
10        3   0 10.   
FBAN
(NFr) O (NTo) Nc C (Vmn (Vmx Bctrl (Qini) T A (Extr
  205            D 0900 1100   205 50.    L        
(G  O E (U) UOp (Sht )
10        1   1 50.   
FBAN
(NFr) O (NTo) Nc C (Vmn (Vmx Bctrl (Qini) T A (Extr
  206            D 0900 1100   206 50.    L        
(G  O E (U) UOp (Sht )
10        1   1 50.   
FBAN
(NFr) O (NTo) Nc C (Vmn (Vmx Bctrl (Qini) T A (Extr
  218            D 1008 1049   218        L        
(G  O E (U) UOp (Sht )
10        1   0 91.5  
FBAN
(NFr) O (NTo) Nc C (Vmn (Vmx Bctrl (Qini) T A (Extr
  229            D 0900 1100   229 55.4   L        
(G  O E (U) UOp (Sht )
10        1   0 -15.  
20        2   2 27.7  
FBAN
(NFr) O (NTo) Nc C (Vmn (Vmx Bctrl (Qini) T A (Extr
  230            D 0950 1050   230 150.   C        
(G  O E (U) UOp (Sht )
10        2   1 150.  
FBAN
(NFr) O (NTo) Nc C (Vmn (Vmx Bctrl (Qini) T A (Extr
  231            D 0950 1050   231 -45.   C        
(G  O E (U) UOp (Sht )
10        1   1 -45.  
FBAN
(NFr) O (NTo) Nc C (Vmn (Vmx Bctrl (Qini) T A (Extr
  232            D 0900 1100   232        L        
(G  O E (U) UOp (Sht )
10        2   0 15.   
FBAN
(NFr) O (NTo) Nc C (Vmn (Vmx Bctrl (Qini) T A (Extr
  233            D 1050 1085   233 -136.  L        
(G  O E (U) UOp (Sht )
10        1   1 -136. 
FBAN
(NFr) O (NTo) Nc C (Vmn (Vmx Bctrl (Qini) T A (Extr
  234            D 1030 1050   234        L        
(G  O E (U) UOp (Sht )
10        2   0 150.  
FBAN
(NFr) O (NTo) Nc C (Vmn (Vmx Bctrl (Qini) T A (Extr
  238            F 0950 1050   238        C        
(G  O E (U) UOp (Sht )
10        1   0 -15.  
FBAN
(NFr) O (NTo) Nc C (Vmn (Vmx Bctrl (Qini) T A (Extr
  241            D 0950 1050   241        C        
(G  O E (U) UOp (Sht )
10        1   0 -5.   
20        1   0 -25.  
FBAN
(NFr) O (NTo) Nc C (Vmn (Vmx Bctrl (Qini) T A (Extr
  245            D 0900 1100   245        L        
(G  O E (U) UOp (Sht )
10        2   0 15.   
FBAN
(NFr) O (NTo) Nc C (Vmn (Vmx Bctrl (Qini) T A (Extr
  246            D 0900 1100   246        C        
(G  O E (U) UOp (Sht )
10        2   0 -50.  
FBAN
(NFr) O (NTo) Nc C (Vmn (Vmx Bctrl (Qini) T A (Extr
  273            D 0950 1050   273 108.   C        
(G  O E (U) UOp (Sht )
10        2   1 108.  
FBAN
(NFr) O (NTo) Nc C (Vmn (Vmx Bctrl (Qini) T A (Extr
  274            D 0900 1100   274 135.   L        
(G  O E (U) UOp (Sht )
10        2   2 67.5  
FBAN
(NFr) O (NTo) Nc C (Vmn (Vmx Bctrl (Qini) T A (Extr
  277            D 1000 1050   277 64.8   L        
(G  O E (U) UOp (Sht )
10        3   3 21.6  
FBAN
(NFr) O (NTo) Nc C (Vmn (Vmx Bctrl (Qini) T A (Extr
  278            D 1000 1050   278 135.   L        
(G  O E (U) UOp (Sht )
10        2   2 67.5  
FBAN
(NFr) O (NTo) Nc C (Vmn (Vmx Bctrl (Qini) T A (Extr
  299            D 1060 1080   299 -136.  L        
(G  O E (U) UOp (Sht )
10        1   1 -136. 
FBAN
(NFr) O (NTo) Nc C (Vmn (Vmx Bctrl (Qini) T A (Extr
  309            F 0950 1050   309        C        
(G  O E (U) UOp (Sht )
10        1   0 32.8  
FBAN
(NFr) O (NTo) Nc C (Vmn (Vmx Bctrl (Qini) T A (Extr
  313            D 0950 1050   313        C        
(G  O E (U) UOp (Sht )
10        1   0 100.  
FBAN
(NFr) O (NTo) Nc C (Vmn (Vmx Bctrl (Qini) T A (Extr
  314            F 0950 1050   314        C        
(G  O E (U) UOp (Sht )
10        1   0 32.8  
FBAN
(NFr) O (NTo) Nc C (Vmn (Vmx Bctrl (Qini) T A (Extr
  315            D 0950 1050   315 -40.   C        
(G  O E (U) UOp (Sht )
10        2   2 -20.  
FBAN
(NFr) O (NTo) Nc C (Vmn (Vmx Bctrl (Qini) T A (Extr
  324            D 0900 1100   324        C        
(G  O E (U) UOp (Sht )
10        4   0 25.   
FBAN
(NFr) O (NTo) Nc C (Vmn (Vmx Bctrl (Qini) T A (Extr
  332            D 0950 1050   332 32.8   C        
(G  O E (U) UOp (Sht )
10        1   1 32.8  
FBAN
(NFr) O (NTo) Nc C (Vmn (Vmx Bctrl (Qini) T A (Extr
  338            F 0950 1050   338 18.    C        
(G  O E (U) UOp (Sht )
10        3   3 6.    
FBAN
(NFr) O (NTo) Nc C (Vmn (Vmx Bctrl (Qini) T A (Extr
  339            F 0950 1050   339 18.    C        
(G  O E (U) UOp (Sht )
10        3   3 6.    
FBAN
(NFr) O (NTo) Nc C (Vmn (Vmx Bctrl (Qini) T A (Extr
  342            F 0950 1050   342 15.7   C        
(G  O E (U) UOp (Sht )
10        1   1 15.7  
FBAN
(NFr) O (NTo) Nc C (Vmn (Vmx Bctrl (Qini) T A (Extr
  350            D 0950 1050   350 200.   C        
(G  O E (U) UOp (Sht )
10        1   1 200.  
FBAN
(NFr) O (NTo) Nc C (Vmn (Vmx Bctrl (Qini) T A (Extr
  351            D 0900 1100   351        C        
(G  O E (U) UOp (Sht )
10        2   0 -50.  
FBAN
(NFr) O (NTo) Nc C (Vmn (Vmx Bctrl (Qini) T A (Extr
  352            D 1030 1050   352        C        
(G  O E (U) UOp (Sht )
10        2   0 -50.  
FBAN
(NFr) O (NTo) Nc C (Vmn (Vmx Bctrl (Qini) T A (Extr
  353            D 0950 1050   353        C        
(G  O E (U) UOp (Sht )
10        3   0 41.   
FBAN
(NFr) O (NTo) Nc C (Vmn (Vmx Bctrl (Qini) T A (Extr
  360            D 0900 1100   360 -272.  C        
(G  O E (U) UOp (Sht )
10        2   2 -136. 
FBAN
(NFr) O (NTo) Nc C (Vmn (Vmx Bctrl (Qini) T A (Extr
  371            D 0900 1100   371        C        
(G  O E (U) UOp (Sht )
10        1   0 -50.  
FBAN
(NFr) O (NTo) Nc C (Vmn (Vmx Bctrl (Qini) T A (Extr
  375            D 0900 1100   375        C        
(G  O E (U) UOp (Sht )
10        4   0 14.4  
FBAN
(NFr) O (NTo) Nc C (Vmn (Vmx Bctrl (Qini) T A (Extr
  378            D 1000 1100   378 -163.  C        
(G  O E (U) UOp (Sht )
10        1   1 -163. 
FBAN
(NFr) O (NTo) Nc C (Vmn (Vmx Bctrl (Qini) T A (Extr
  385            D 0950 1050   385        C        
(G  O E (U) UOp (Sht )
10        1   0 200.  
FBAN
(NFr) O (NTo) Nc C (Vmn (Vmx Bctrl (Qini) T A (Extr
  389            F 1030 1030   386 26.8   C        
(G  O E (U) UOp (Sht )
10        3   1 26.8  
FBAN
(NFr) O (NTo) Nc C (Vmn (Vmx Bctrl (Qini) T A (Extr
  390            F 0900 1100   390 -345.  C        
(G  O E (U) UOp (Sht )
10        2   2 -91.  
20        1   1 -163. 
FBAN
(NFr) O (NTo) Nc C (Vmn (Vmx Bctrl (Qini) T A (Extr
  391            D 0950 1050   391        C        
(G  O E (U) UOp (Sht )
10        2   0 150.  
FBAN
(NFr) O (NTo) Nc C (Vmn (Vmx Bctrl (Qini) T A (Extr
  399            F 0950 1050   399 16.6   C        
(G  O E (U) UOp (Sht )
10        1   1 16.6  
FBAN
(NFr) O (NTo) Nc C (Vmn (Vmx Bctrl (Qini) T A (Extr
  411            F 0950 1050   411        C        
(G  O E (U) UOp (Sht )
10        1   0 63.   
FBAN
(NFr) O (NTo) Nc C (Vmn (Vmx Bctrl (Qini) T A (Extr
  415            F 0950 1050   415 120.6  C        
(G  O E (U) UOp (Sht )
10        1   1 57.6  
20        1   1 63.   
FBAN
(NFr) O (NTo) Nc C (Vmn (Vmx Bctrl (Qini) T A (Extr
  422            F 0950 1050   422        C        
(G  O E (U) UOp (Sht )
10        1   0 63.   
FBAN
(NFr) O (NTo) Nc C (Vmn (Vmx Bctrl (Qini) T A (Extr
  428            F 0950 1050   428        C        
(G  O E (U) UOp (Sht )
10        1   0 21.   
FBAN
(NFr) O (NTo) Nc C (Vmn (Vmx Bctrl (Qini) T A (Extr
  429            F 0950 1050   429        C        
(G  O E (U) UOp (Sht )
10        4   0 8.1   
FBAN
(NFr) O (NTo) Nc C (Vmn (Vmx Bctrl (Qini) T A (Extr
  431            D 0950 1050   431        C        
(G  O E (U) UOp (Sht )
10        2   0 -60.  
FBAN
(NFr) O (NTo) Nc C (Vmn (Vmx Bctrl (Qini) T A (Extr
  436            F 1000 1050   436 28.8   C        
(G  O E (U) UOp (Sht )
10        1   1 28.8  
FBAN
(NFr) O (NTo) Nc C (Vmn (Vmx Bctrl (Qini) T A (Extr
  437            F 1000 1050   437 57.6   C        
(G  O E (U) UOp (Sht )
10        1   1 57.6  
FBAN
(NFr) O (NTo) Nc C (Vmn (Vmx Bctrl (Qini) T A (Extr
  438            D 0950 1050   438        C        
(G  O E (U) UOp (Sht )
10        1   0 -132. 
FBAN
(NFr) O (NTo) Nc C (Vmn (Vmx Bctrl (Qini) T A (Extr
  443            F 0950 1050   443 57.6   C        
(G  O E (U) UOp (Sht )
10        3   1 57.6  
FBAN
(NFr) O (NTo) Nc C (Vmn (Vmx Bctrl (Qini) T A (Extr
  444            F 0950 1050   444 28.8   C        
(G  O E (U) UOp (Sht )
10        2   1 28.8  
FBAN
(NFr) O (NTo) Nc C (Vmn (Vmx Bctrl (Qini) T A (Extr
  445            F 0950 1050   445 28.8   C        
(G  O E (U) UOp (Sht )
10        2   1 28.8  
FBAN
(NFr) O (NTo) Nc C (Vmn (Vmx Bctrl (Qini) T A (Extr
  447            F 0950 1050   447        C        
(G  O E (U) UOp (Sht )
10        1   0 63.   
FBAN
(NFr) O (NTo) Nc C (Vmn (Vmx Bctrl (Qini) T A (Extr
  455            F 0950 1050   455        C        
(G  O E (U) UOp (Sht )
10        1   0 63.   
FBAN
(NFr) O (NTo) Nc C (Vmn (Vmx Bctrl (Qini) T A (Extr
  459            F 0950 1050   459 21.    C        
(G  O E (U) UOp (Sht )
10        1   1 21.   
FBAN
(NFr) O (NTo) Nc C (Vmn (Vmx Bctrl (Qini) T A (Extr
  465            F 0950 1050   465 63.    C        
(G  O E (U) UOp (Sht )
10        2   1 63.   
FBAN
(NFr) O (NTo) Nc C (Vmn (Vmx Bctrl (Qini) T A (Extr
  467            F 0950 1050   467 28.8   C        
(G  O E (U) UOp (Sht )
10        1   1 28.8  
20        1   0 57.6  
FBAN
(NFr) O (NTo) Nc C (Vmn (Vmx Bctrl (Qini) T A (Extr
  473            F 0950 1050   473 63.    C        
(G  O E (U) UOp (Sht )
10        2   1 63.   
FBAN
(NFr) O (NTo) Nc C (Vmn (Vmx Bctrl (Qini) T A (Extr
  475            F 0950 1050   475 63.    C        
(G  O E (U) UOp (Sht )
10        1   1 63.   
FBAN
(NFr) O (NTo) Nc C (Vmn (Vmx Bctrl (Qini) T A (Extr
  476            F 0950 1050   476 63.    C        
(G  O E (U) UOp (Sht )
10        1   1 63.   
FBAN
(NFr) O (NTo) Nc C (Vmn (Vmx Bctrl (Qini) T A (Extr
  485            F 0950 1050   485 28.8   C        
(G  O E (U) UOp (Sht )
10        1   1 28.8  
FBAN
(NFr) O (NTo) Nc C (Vmn (Vmx Bctrl (Qini) T A (Extr
  486            F 0950 1050   486 28.8   C        
(G  O E (U) UOp (Sht )
10        2   1 28.8  
FBAN
(NFr) O (NTo) Nc C (Vmn (Vmx Bctrl (Qini) T A (Extr
  493            F 0950 1050   493        C        
(G  O E (U) UOp (Sht )
10        1   0 57.6  
20        1   0 63.   
FBAN
(NFr) O (NTo) Nc C (Vmn (Vmx Bctrl (Qini) T A (Extr
  494            F 0950 1050   494 16.2   C        
(G  O E (U) UOp (Sht )
10        6   2 8.1   
FBAN
(NFr) O (NTo) Nc C (Vmn (Vmx Bctrl (Qini) T A (Extr
  496            D 0950 1050   496 115.2  C        
(G  O E (U) UOp (Sht )
10        3   2 57.6  
FBAN
(NFr) O (NTo) Nc C (Vmn (Vmx Bctrl (Qini) T A (Extr
  528            D 0950 1050   528 30.    C        
(G  O E (U) UOp (Sht )
10        1   1 30.   
FBAN
(NFr) O (NTo) Nc C (Vmn (Vmx Bctrl (Qini) T A (Extr
  535            D 0900 1100   535        C        
(G  O E (U) UOp (Sht )
10        1   0 -165. 
FBAN
(NFr) O (NTo) Nc C (Vmn (Vmx Bctrl (Qini) T A (Extr
  540            D 0950 1050   540        C        
(G  O E (U) UOp (Sht )
10        2   0 -180. 
FBAN
(NFr) O (NTo) Nc C (Vmn (Vmx Bctrl (Qini) T A (Extr
  556            F 0950 1048   556 -150.  C        
(G  O E (U) UOp (Sht )
10        2   1 -150. 
FBAN
(NFr) O (NTo) Nc C (Vmn (Vmx Bctrl (Qini) T A (Extr
  559            D 0950 1046   559        C        
(G  O E (U) UOp (Sht )
10        2   0 -183. 
FBAN
(NFr) O (NTo) Nc C (Vmn (Vmx Bctrl (Qini) T A (Extr
  561            D 0950 1046   561        C        
(G  O E (U) UOp (Sht )
10        1   0 -183. 
FBAN
(NFr) O (NTo) Nc C (Vmn (Vmx Bctrl (Qini) T A (Extr
  562            F 1000 1020   562 100.   C        
(G  O E (U) UOp (Sht )
10        1   1 100.  
FBAN
(NFr) O (NTo) Nc C (Vmn (Vmx Bctrl (Qini) T A (Extr
  564            F 0950 1050   564        C        
(G  O E (U) UOp (Sht )
10        1   0 100.  
FBAN
(NFr) O (NTo) Nc C (Vmn (Vmx Bctrl (Qini) T A (Extr
  566            F 1000 1020   566 100.   C        
(G  O E (U) UOp (Sht )
10        1   1 100.  
FBAN
(NFr) O (NTo) Nc C (Vmn (Vmx Bctrl (Qini) T A (Extr
  568            D 1000 1020   568 300.   C        
(G  O E (U) UOp (Sht )
10        3   3 100.  
FBAN
(NFr) O (NTo) Nc C (Vmn (Vmx Bctrl (Qini) T A (Extr
  570            D 0950 1046   570        C        
(G  O E (U) UOp (Sht )
10        1   0 -91.5 
FBAN
(NFr) O (NTo) Nc C (Vmn (Vmx Bctrl (Qini) T A (Extr
  571            F 0950 1050   571 100.   C        
(G  O E (U) UOp (Sht )
10        2   2 50.   
FBAN
(NFr) O (NTo) Nc C (Vmn (Vmx Bctrl (Qini) T A (Extr
  572            D 0950 1046   572        C        
(G  O E (U) UOp (Sht )
10        1   0 -180. 
20        1   0 -180. 
FBAN
(NFr) O (NTo) Nc C (Vmn (Vmx Bctrl (Qini) T A (Extr
  575            F 0950 1050   575 100.   C        
(G  O E (U) UOp (Sht )
10        1   1 100.  
FBAN
(NFr) O (NTo) Nc C (Vmn (Vmx Bctrl (Qini) T A (Extr
  576            F 0950 1050   576 100.   C        
(G  O E (U) UOp (Sht )
10        2   2 50.   
FBAN
(NFr) O (NTo) Nc C (Vmn (Vmx Bctrl (Qini) T A (Extr
  577            F 0950 1050   577 100.   C        
(G  O E (U) UOp (Sht )
10        2   2 50.   
FBAN
(NFr) O (NTo) Nc C (Vmn (Vmx Bctrl (Qini) T A (Extr
  583            F 0900 1100   583 200.   C        
(G  O E (U) UOp (Sht )
10        2   2 100.  
FBAN
(NFr) O (NTo) Nc C (Vmn (Vmx Bctrl (Qini) T A (Extr
  584            D 0950 1046   584        C        
(G  O E (U) UOp (Sht )
10        1   0 -100. 
FBAN
(NFr) O (NTo) Nc C (Vmn (Vmx Bctrl (Qini) T A (Extr
  587            F 0950 1050   587 100.   C        
(G  O E (U) UOp (Sht )
10        1   1 100.  
FBAN
(NFr) O (NTo) Nc C (Vmn (Vmx Bctrl (Qini) T A (Extr
  588            F 1000 1020   588 100.   C        
(G  O E (U) UOp (Sht )
10        1   1 100.  
20        1   0 50.   
FBAN
(NFr) O (NTo) Nc C (Vmn (Vmx Bctrl (Qini) T A (Extr
  590            D 0950 1050   590        C        
(G  O E (U) UOp (Sht )
10        2   0 100.  
FBAN
(NFr) O (NTo) Nc C (Vmn (Vmx Bctrl (Qini) T A (Extr
  591            F 1000 1020   591 50.    C        
(G  O E (U) UOp (Sht )
10        1   1 50.   
FBAN
(NFr) O (NTo) Nc C (Vmn (Vmx Bctrl (Qini) T A (Extr
  593            D 0950 1046   593        C        
(G  O E (U) UOp (Sht )
10        1   0 -91.5 
FBAN
(NFr) O (NTo) Nc C (Vmn (Vmx Bctrl (Qini) T A (Extr
  601            F 0950 1050   601        C        
(G  O E (U) UOp (Sht )
10        1   0 100.  
FBAN
(NFr) O (NTo) Nc C (Vmn (Vmx Bctrl (Qini) T A (Extr
  609            D 0950 1100   609        C        
(G  O E (U) UOp (Sht )
10        2   0 -180. 
FBAN
(NFr) O (NTo) Nc C (Vmn (Vmx Bctrl (Qini) T A (Extr
  623            D 0950 1050   623        C        
(G  O E (U) UOp (Sht )
10        1   0 30.   
FBAN
(NFr) O (NTo) Nc C (Vmn (Vmx Bctrl (Qini) T A (Extr
  624            F 0950 1050   624 30.    C        
(G  O E (U) UOp (Sht )
10        2   1 30.   
FBAN
(NFr) O (NTo) Nc C (Vmn (Vmx Bctrl (Qini) T A (Extr
  639            D 0950 1050   639        C        
(G  O E (U) UOp (Sht )
10        1   0 30.   
FBAN
(NFr) O (NTo) Nc C (Vmn (Vmx Bctrl (Qini) T A (Extr
  640            D 0950 1050   640        C        
(G  O E (U) UOp (Sht )
10        1   0 30.   
FBAN
(NFr) O (NTo) Nc C (Vmn (Vmx Bctrl (Qini) T A (Extr
  643            F 0950 1050   643 30.    C        
(G  O E (U) UOp (Sht )
10        2   1 30.   
FBAN
(NFr) O (NTo) Nc C (Vmn (Vmx Bctrl (Qini) T A (Extr
  659            D 0950 1050   659 30.    C        
(G  O E (U) UOp (Sht )
10        1   1 30.   
FBAN
(NFr) O (NTo) Nc C (Vmn (Vmx Bctrl (Qini) T A (Extr
  665            D 0950 1050   665        C        
(G  O E (U) UOp (Sht )
10        1   0 50.   
FBAN
(NFr) O (NTo) Nc C (Vmn (Vmx Bctrl (Qini) T A (Extr
  668            F 0950 1050   668        C        
(G  O E (U) UOp (Sht )
10        1   0 -90.  
FBAN
(NFr) O (NTo) Nc C (Vmn (Vmx Bctrl (Qini) T A (Extr
  674            D 0950 1050   674        C        
(G  O E (U) UOp (Sht )
10        2   0 25.   
FBAN
(NFr) O (NTo) Nc C (Vmn (Vmx Bctrl (Qini) T A (Extr
  681            D 0950 1050   681 100.   C        
(G  O E (U) UOp (Sht )
10        1   1 100.  
FBAN
(NFr) O (NTo) Nc C (Vmn (Vmx Bctrl (Qini) T A (Extr
  694            D 0950 1050   694 60.    C        
(G  O E (U) UOp (Sht )
10        1   1 60.   
FBAN
(NFr) O (NTo) Nc C (Vmn (Vmx Bctrl (Qini) T A (Extr
  698            D 0950 1050   698 100.   C        
(G  O E (U) UOp (Sht )
10        2   2 50.   
FBAN
(NFr) O (NTo) Nc C (Vmn (Vmx Bctrl (Qini) T A (Extr
  712            D 0950 1050   712 100.   C        
(G  O E (U) UOp (Sht )
10        2   2 50.   
FBAN
(NFr) O (NTo) Nc C (Vmn (Vmx Bctrl (Qini) T A (Extr
  741            D 0950 1050   741 30.    C        
(G  O E (U) UOp (Sht )
10        2   2 15.   
FBAN
(NFr) O (NTo) Nc C (Vmn (Vmx Bctrl (Qini) T A (Extr
  746            D 0950 1050   746 42.9   C        
(G  O E (U) UOp (Sht )
10        3   3 14.3  
FBAN
(NFr) O (NTo) Nc C (Vmn (Vmx Bctrl (Qini) T A (Extr
  747            D 0950 1050   747 70.    C        
(G  O E (U) UOp (Sht )
10        1   1 20.   
20        1   1 50.   
FBAN
(NFr) O (NTo) Nc C (Vmn (Vmx Bctrl (Qini) T A (Extr
  748            D 0950 1050   748 20.    C        
(G  O E (U) UOp (Sht )
10        2   1 20.   
FBAN
(NFr) O (NTo) Nc C (Vmn (Vmx Bctrl (Qini) T A (Extr
  796            F 0950 1050   796 16.2   C        
(G  O E (U) UOp (Sht )
11        1   1 16.2  
FBAN
(NFr) O (NTo) Nc C (Vmn (Vmx Bctrl (Qini) T A (Extr
  799            F 0950 1050   799 10.8   C        
(G  O E (U) UOp (Sht )
11        1   1 10.8  
FBAN
(NFr) O (NTo) Nc C (Vmn (Vmx Bctrl (Qini) T A (Extr
  814            F 0950 1050   814        C        
(G  O E (U) UOp (Sht )
10        2   0 149.99
FBAN
(NFr) O (NTo) Nc C (Vmn (Vmx Bctrl (Qini) T A (Extr
  825            F 0950 1050   825 2.4    C        
(G  O E (U) UOp (Sht )
10        1   1 2.4   
FBAN
(NFr) O (NTo) Nc C (Vmn (Vmx Bctrl (Qini) T A (Extr
  826            F 0950 1050   826 4.8    C        
(G  O E (U) UOp (Sht )
10        5   2 2.4   
FBAN
(NFr) O (NTo) Nc C (Vmn (Vmx Bctrl (Qini) T A (Extr
  827            D 0950 1050   827        C        
(G  O E (U) UOp (Sht )
10        1   0 50.   
FBAN
(NFr) O (NTo) Nc C (Vmn (Vmx Bctrl (Qini) T A (Extr
  828            F 0950 1050   828 1.2    C        
(G  O E (U) UOp (Sht )
10        1   1 1.2   
FBAN
(NFr) O (NTo) Nc C (Vmn (Vmx Bctrl (Qini) T A (Extr
  830            F 0950 1050   830 30.    C        
(G  O E (U) UOp (Sht )
10        1   1 30.   
FBAN
(NFr) O (NTo) Nc C (Vmn (Vmx Bctrl (Qini) T A (Extr
  831            D 0950 1050   831 50.    C        
(G  O E (U) UOp (Sht )
10        1   1 50.   
FBAN
(NFr) O (NTo) Nc C (Vmn (Vmx Bctrl (Qini) T A (Extr
  832            F 0950 1050   832 1.2    C        
(G  O E (U) UOp (Sht )
10        1   1 1.2   
FBAN
(NFr) O (NTo) Nc C (Vmn (Vmx Bctrl (Qini) T A (Extr
  833            F 0950 1050   833        C        
(G  O E (U) UOp (Sht )
10    D   2   0 2.4   
FBAN
(NFr) O (NTo) Nc C (Vmn (Vmx Bctrl (Qini) T A (Extr
  836            F 0950 1050   836 7.2    C        
(G  O E (U) UOp (Sht )
10        4   3 2.4   
FBAN
(NFr) O (NTo) Nc C (Vmn (Vmx Bctrl (Qini) T A (Extr
  837            F 0950 1050   837 4.8    C        
(G  O E (U) UOp (Sht )
10        2   2 2.4   
FBAN
(NFr) O (NTo) Nc C (Vmn (Vmx Bctrl (Qini) T A (Extr
  838            F 0950 1050   838        C        
(G  O E (U) UOp (Sht )
10    D   1   0 2.4   
20    D   1   0 4.8   
FBAN
(NFr) O (NTo) Nc C (Vmn (Vmx Bctrl (Qini) T A (Extr
  840            F 0950 1050   840 2.4    C        
(G  O E (U) UOp (Sht )
10        1   1 2.4   
20        2   0 -15.  
FBAN
(NFr) O (NTo) Nc C (Vmn (Vmx Bctrl (Qini) T A (Extr
  841            F 0950 1050   841 2.4    C        
(G  O E (U) UOp (Sht )
10        1   1 2.4   
FBAN
(NFr) O (NTo) Nc C (Vmn (Vmx Bctrl (Qini) T A (Extr
  842            F 0950 1050   842        C        
(G  O E (U) UOp (Sht )
10    D   1   0 2.4   
20    D   2   0 4.8   
FBAN
(NFr) O (NTo) Nc C (Vmn (Vmx Bctrl (Qini) T A (Extr
  844            F 0950 1050   844 12.    C        
(G  O E (U) UOp (Sht )
10        5   5 2.4   
FBAN
(NFr) O (NTo) Nc C (Vmn (Vmx Bctrl (Qini) T A (Extr
  845            F 0950 1050   845 7.2    C        
(G  O E (U) UOp (Sht )
10        1   1 4.8   
20        1   1 2.4   
FBAN
(NFr) O (NTo) Nc C (Vmn (Vmx Bctrl (Qini) T A (Extr
  847            F 0950 1050   847        C        
(G  O E (U) UOp (Sht )
10    D   1   0 2.4   
20        3   0 -5.   
30        1   0 -10.  
FBAN
(NFr) O (NTo) Nc C (Vmn (Vmx Bctrl (Qini) T A (Extr
  849            F 0950 1050   849 4.8    C        
(G  O E (U) UOp (Sht )
30        3   1 4.8   
FBAN
(NFr) O (NTo) Nc C (Vmn (Vmx Bctrl (Qini) T A (Extr
  850            F 0950 1050   850 14.4   C        
(G  O E (U) UOp (Sht )
10        3   3 4.8   
FBAN
(NFr) O (NTo) Nc C (Vmn (Vmx Bctrl (Qini) T A (Extr
  851            F 0950 1050   851 4.8    C        
(G  O E (U) UOp (Sht )
10        2   2 2.4   
FBAN
(NFr) O (NTo) Nc C (Vmn (Vmx Bctrl (Qini) T A (Extr
  852            D 0950 1050   852 30.    C        
(G  O E (U) UOp (Sht )
10        1   1 30.   
FBAN
(NFr) O (NTo) Nc C (Vmn (Vmx Bctrl (Qini) T A (Extr
  854            F 0950 1050   854        C        
(G  O E (U) UOp (Sht )
10    D   2   0 4.8   
FBAN
(NFr) O (NTo) Nc C (Vmn (Vmx Bctrl (Qini) T A (Extr
  855            F 0950 1050   855 7.2    C        
(G  O E (U) UOp (Sht )
10        1   1 2.4   
20        2   1 4.8   
FBAN
(NFr) O (NTo) Nc C (Vmn (Vmx Bctrl (Qini) T A (Extr
  857            F 0950 1050   857 14.4   C        
(G  O E (U) UOp (Sht )
10        4   4 3.6   
FBAN
(NFr) O (NTo) Nc C (Vmn (Vmx Bctrl (Qini) T A (Extr
  858            F 0950 1050   858 13.2   C        
(G  O E (U) UOp (Sht )
10        4   4 2.4   
20        2   0 3.    
30        1   1 3.6   
FBAN
(NFr) O (NTo) Nc C (Vmn (Vmx Bctrl (Qini) T A (Extr
...